<?xml version="1.0" encoding="UTF-8"?>

<!-- generated on Sun Sep  9 07:14:37 2018 by SUMO Version 0.32.0
<?xml version="1.0" encoding="UTF-8"?>

<configuration xmlns:xsi="http://www.w3.org/2001/XMLSchema-instance" xsi:noNamespaceSchemaLocation="http://sumo.dlr.de/xsd/sumoConfiguration.xsd">

    <input>
        <net-file value="gym_sumo/data/cross.net.xml"/>
        <route-files value="gym_sumo/data/cross.rou.xml"/>
        <additional-files value="gym_sumo/data/cross.det.xml"/>
    </input>

    <output>
        <tripinfo-output value="tripinfo.xml"/>
    </output>

    <time>
        <begin value="0"/>
    </time>

    <report>
        <verbose value="true"/>
        <no-warnings value="true"/>
        <no-step-log value="true"/>
    </report>

    <traci_server>
        <remote-port value="59611"/>
    </traci_server>

</configuration>
